*SPEF "IEEE 1481-1998"
*DESIGN "Ram_dualport"
*DATE "Sat Jul 20 19:20:37 2024"
*VENDOR "Cadence Design Systems, Inc."
*PROGRAM "Innovus"
*VERSION "20.14-s095_1"
*DESIGN_FLOW "PIN_CAP NONE" "NAME_SCOPE LOCAL"
*DIVIDER /
*DELIMITER :
*BUS_DELIMITER []
*T_UNIT 1 NS
*C_UNIT 1 PF
*R_UNIT 1 OHM
*L_UNIT 1 HENRY

// MMMC spef file for corner 'rc'

*NAME_MAP

*1 data1[7]
*2 data1[6]
*3 data1[5]
*4 data1[4]
*5 data1[3]
*6 data1[2]
*7 data1[1]
*8 data1[0]
*9 data2[7]
*10 data2[6]
*11 data2[5]
*12 data2[4]
*13 data2[3]
*14 data2[2]
*15 data2[1]
*16 data2[0]
*17 adr1[5]
*18 adr1[4]
*19 adr1[3]
*20 adr1[2]
*21 adr1[1]
*22 adr1[0]
*23 adr2[5]
*24 adr2[4]
*25 adr2[3]
*26 adr2[2]
*27 adr2[1]
*28 adr2[0]
*29 we1
*30 we2
*31 clk
*32 q1[7]
*33 q1[6]
*34 q1[5]
*35 q1[4]
*36 q1[3]
*37 q1[2]
*38 q1[1]
*39 q1[0]
*40 q2[7]
*41 q2[6]
*42 q2[5]
*43 q2[4]
*44 q2[3]
*45 q2[2]
*46 q2[1]
*47 q2[0]
*48 ram\[0\][7]
*49 ram\[0\][6]
*50 ram\[0\][5]
*51 ram\[0\][4]
*52 ram\[0\][3]
*53 ram\[0\][2]
*54 ram\[0\][1]
*55 ram\[0\][0]
*56 ram\[1\][7]
*57 ram\[1\][6]
*58 ram\[1\][5]
*59 ram\[1\][4]
*60 ram\[1\][3]
*61 ram\[1\][2]
*62 ram\[1\][1]
*63 ram\[1\][0]
*64 ram\[2\][7]
*65 ram\[2\][6]
*66 ram\[2\][5]
*67 ram\[2\][4]
*68 ram\[2\][3]
*69 ram\[2\][2]
*70 ram\[2\][1]
*71 ram\[2\][0]
*72 ram\[3\][7]
*73 ram\[3\][6]
*74 ram\[3\][5]
*75 ram\[3\][4]
*76 ram\[3\][3]
*77 ram\[3\][2]
*78 ram\[3\][1]
*79 ram\[3\][0]
*80 ram\[4\][7]
*81 ram\[4\][6]
*82 ram\[4\][5]
*83 ram\[4\][4]
*84 ram\[4\][3]
*85 ram\[4\][2]
*86 ram\[4\][1]
*87 ram\[4\][0]
*88 ram\[5\][7]
*89 ram\[5\][6]
*90 ram\[5\][5]
*91 ram\[5\][4]
*92 ram\[5\][3]
*93 ram\[5\][2]
*94 ram\[5\][1]
*95 ram\[5\][0]
*96 ram\[6\][7]
*97 ram\[6\][6]
*98 ram\[6\][5]
*99 ram\[6\][4]
*100 ram\[6\][3]
*101 ram\[6\][2]
*102 ram\[6\][1]
*103 ram\[6\][0]
*104 ram\[7\][7]
*105 ram\[7\][6]
*106 ram\[7\][5]
*107 ram\[7\][4]
*108 ram\[7\][3]
*109 ram\[7\][2]
*110 ram\[7\][1]
*111 ram\[7\][0]
*112 ram\[8\][7]
*113 ram\[8\][6]
*114 ram\[8\][5]
*115 ram\[8\][4]
*116 ram\[8\][3]
*117 ram\[8\][2]
*118 ram\[8\][1]
*119 ram\[8\][0]
*120 ram\[9\][7]
*121 ram\[9\][6]
*122 ram\[9\][5]
*123 ram\[9\][4]
*124 ram\[9\][3]
*125 ram\[9\][2]
*126 ram\[9\][1]
*127 ram\[9\][0]
*128 ram\[10\][7]
*129 ram\[10\][6]
*130 ram\[10\][5]
*131 ram\[10\][4]
*132 ram\[10\][3]
*133 ram\[10\][2]
*134 ram\[10\][1]
*135 ram\[10\][0]
*136 ram\[11\][7]
*137 ram\[11\][6]
*138 ram\[11\][5]
*139 ram\[11\][4]
*140 ram\[11\][3]
*141 ram\[11\][2]
*142 ram\[11\][1]
*143 ram\[11\][0]
*144 ram\[12\][7]
*145 ram\[12\][6]
*146 ram\[12\][5]
*147 ram\[12\][4]
*148 ram\[12\][3]
*149 ram\[12\][2]
*150 ram\[12\][1]
*151 ram\[12\][0]
*152 ram\[13\][7]
*153 ram\[13\][6]
*154 ram\[13\][5]
*155 ram\[13\][4]
*156 ram\[13\][3]
*157 ram\[13\][2]
*158 ram\[13\][1]
*159 ram\[13\][0]
*160 ram\[14\][7]
*161 ram\[14\][6]
*162 ram\[14\][5]
*163 ram\[14\][4]
*164 ram\[14\][3]
*165 ram\[14\][2]
*166 ram\[14\][1]
*167 ram\[14\][0]
*168 ram\[15\][7]
*169 ram\[15\][6]
*170 ram\[15\][5]
*171 ram\[15\][4]
*172 ram\[15\][3]
*173 ram\[15\][2]
*174 ram\[15\][1]
*175 ram\[15\][0]
*176 ram\[16\][7]
*177 ram\[16\][6]
*178 ram\[16\][5]
*179 ram\[16\][4]
*180 ram\[16\][3]
*181 ram\[16\][2]
*182 ram\[16\][1]
*183 ram\[16\][0]
*184 ram\[17\][7]
*185 ram\[17\][6]
*186 ram\[17\][5]
*187 ram\[17\][4]
*188 ram\[17\][3]
*189 ram\[17\][2]
*190 ram\[17\][1]
*191 ram\[17\][0]
*192 ram\[18\][7]
*193 ram\[18\][6]
*194 ram\[18\][5]
*195 ram\[18\][4]
*196 ram\[18\][3]
*197 ram\[18\][2]
*198 ram\[18\][1]
*199 ram\[18\][0]
*200 ram\[19\][7]
*201 ram\[19\][6]
*202 ram\[19\][5]
*203 ram\[19\][4]
*204 ram\[19\][3]
*205 ram\[19\][2]
*206 ram\[19\][1]
*207 ram\[19\][0]
*208 ram\[20\][7]
*209 ram\[20\][6]
*210 ram\[20\][5]
*211 ram\[20\][4]
*212 ram\[20\][3]
*213 ram\[20\][2]
*214 ram\[20\][1]
*215 ram\[20\][0]
*216 ram\[21\][7]
*217 ram\[21\][6]
*218 ram\[21\][5]
*219 ram\[21\][4]
*220 ram\[21\][3]
*221 ram\[21\][2]
*222 ram\[21\][1]
*223 ram\[21\][0]
*224 ram\[22\][7]
*225 ram\[22\][6]
*226 ram\[22\][5]
*227 ram\[22\][4]
*228 ram\[22\][3]
*229 ram\[22\][2]
*230 ram\[22\][1]
*231 ram\[22\][0]
*232 ram\[23\][7]
*233 ram\[23\][6]
*234 ram\[23\][5]
*235 ram\[23\][4]
*236 ram\[23\][3]
*237 ram\[23\][2]
*238 ram\[23\][1]
*239 ram\[23\][0]
*240 ram\[24\][7]
*241 ram\[24\][6]
*242 ram\[24\][5]
*243 ram\[24\][4]
*244 ram\[24\][3]
*245 ram\[24\][2]
*246 ram\[24\][1]
*247 ram\[24\][0]
*248 ram\[25\][7]
*249 ram\[25\][6]
*250 ram\[25\][5]
*251 ram\[25\][4]
*252 ram\[25\][3]
*253 ram\[25\][2]
*254 ram\[25\][1]
*255 ram\[25\][0]
*256 ram\[26\][7]
*257 ram\[26\][6]
*258 ram\[26\][5]
*259 ram\[26\][4]
*260 ram\[26\][3]
*261 ram\[26\][2]
*262 ram\[26\][1]
*263 ram\[26\][0]
*264 ram\[27\][7]
*265 ram\[27\][6]
*266 ram\[27\][5]
*267 ram\[27\][4]
*268 ram\[27\][3]
*269 ram\[27\][2]
*270 ram\[27\][1]
*271 ram\[27\][0]
*272 ram\[28\][7]
*273 ram\[28\][6]
*274 ram\[28\][5]
*275 ram\[28\][4]
*276 ram\[28\][3]
*277 ram\[28\][2]
*278 ram\[28\][1]
*279 ram\[28\][0]
*280 ram\[29\][7]
*281 ram\[29\][6]
*282 ram\[29\][5]
*283 ram\[29\][4]
*284 ram\[29\][3]
*285 ram\[29\][2]
*286 ram\[29\][1]
*287 ram\[29\][0]
*288 ram\[30\][7]
*289 ram\[30\][6]
*290 ram\[30\][5]
*291 ram\[30\][4]
*292 ram\[30\][3]
*293 ram\[30\][2]
*294 ram\[30\][1]
*295 ram\[30\][0]
*296 ram\[31\][7]
*297 ram\[31\][6]
*298 ram\[31\][5]
*299 ram\[31\][4]
*300 ram\[31\][3]
*301 ram\[31\][2]
*302 ram\[31\][1]
*303 ram\[31\][0]
*304 ram\[32\][7]
*305 ram\[32\][6]
*306 ram\[32\][5]
*307 ram\[32\][4]
*308 ram\[32\][3]
*309 ram\[32\][2]
*310 ram\[32\][1]
*311 ram\[32\][0]
*312 ram\[33\][7]
*313 ram\[33\][6]
*314 ram\[33\][5]
*315 ram\[33\][4]
*316 ram\[33\][3]
*317 ram\[33\][2]
*318 ram\[33\][1]
*319 ram\[33\][0]
*320 ram\[34\][7]
*321 ram\[34\][6]
*322 ram\[34\][5]
*323 ram\[34\][4]
*324 ram\[34\][3]
*325 ram\[34\][2]
*326 ram\[34\][1]
*327 ram\[34\][0]
*328 ram\[35\][7]
*329 ram\[35\][6]
*330 ram\[35\][5]
*331 ram\[35\][4]
*332 ram\[35\][3]
*333 ram\[35\][2]
*334 ram\[35\][1]
*335 ram\[35\][0]
*336 ram\[36\][7]
*337 ram\[36\][6]
*338 ram\[36\][5]
*339 ram\[36\][4]
*340 ram\[36\][3]
*341 ram\[36\][2]
*342 ram\[36\][1]
*343 ram\[36\][0]
*344 ram\[37\][7]
*345 ram\[37\][6]
*346 ram\[37\][5]
*347 ram\[37\][4]
*348 ram\[37\][3]
*349 ram\[37\][2]
*350 ram\[37\][1]
*351 ram\[37\][0]
*352 ram\[38\][7]
*353 ram\[38\][6]
*354 ram\[38\][5]
*355 ram\[38\][4]
*356 ram\[38\][3]
*357 ram\[38\][2]
*358 ram\[38\][1]
*359 ram\[38\][0]
*360 ram\[39\][7]
*361 ram\[39\][6]
*362 ram\[39\][5]
*363 ram\[39\][4]
*364 ram\[39\][3]
*365 ram\[39\][2]
*366 ram\[39\][1]
*367 ram\[39\][0]
*368 ram\[40\][7]
*369 ram\[40\][6]
*370 ram\[40\][5]
*371 ram\[40\][4]
*372 ram\[40\][3]
*373 ram\[40\][2]
*374 ram\[40\][1]
*375 ram\[40\][0]
*376 ram\[41\][7]
*377 ram\[41\][6]
*378 ram\[41\][5]
*379 ram\[41\][4]
*380 ram\[41\][3]
*381 ram\[41\][2]
*382 ram\[41\][1]
*383 ram\[41\][0]
*384 ram\[42\][7]
*385 ram\[42\][6]
*386 ram\[42\][5]
*387 ram\[42\][4]
*388 ram\[42\][3]
*389 ram\[42\][2]
*390 ram\[42\][1]
*391 ram\[42\][0]
*392 ram\[43\][7]
*393 ram\[43\][6]
*394 ram\[43\][5]
*395 ram\[43\][4]
*396 ram\[43\][3]
*397 ram\[43\][2]
*398 ram\[43\][1]
*399 ram\[43\][0]
*400 ram\[44\][7]
*401 ram\[44\][6]
*402 ram\[44\][5]
*403 ram\[44\][4]
*404 ram\[44\][3]
*405 ram\[44\][2]
*406 ram\[44\][1]
*407 ram\[44\][0]
*408 ram\[45\][7]
*409 ram\[45\][6]
*410 ram\[45\][5]
*411 ram\[45\][4]
*412 ram\[45\][3]
*413 ram\[45\][2]
*414 ram\[45\][1]
*415 ram\[45\][0]
*416 ram\[46\][7]
*417 ram\[46\][6]
*418 ram\[46\][5]
*419 ram\[46\][4]
*420 ram\[46\][3]
*421 ram\[46\][2]
*422 ram\[46\][1]
*423 ram\[46\][0]
*424 ram\[47\][7]
*425 ram\[47\][6]
*426 ram\[47\][5]
*427 ram\[47\][4]
*428 ram\[47\][3]
*429 ram\[47\][2]
*430 ram\[47\][1]
*431 ram\[47\][0]
*432 ram\[48\][7]
*433 ram\[48\][6]
*434 ram\[48\][5]
*435 ram\[48\][4]
*436 ram\[48\][3]
*437 ram\[48\][2]
*438 ram\[48\][1]
*439 ram\[48\][0]
*440 ram\[49\][7]
*441 ram\[49\][6]
*442 ram\[49\][5]
*443 ram\[49\][4]
*444 ram\[49\][3]
*445 ram\[49\][2]
*446 ram\[49\][1]
*447 ram\[49\][0]
*448 ram\[50\][7]
*449 ram\[50\][6]
*450 ram\[50\][5]
*451 ram\[50\][4]
*452 ram\[50\][3]
*453 ram\[50\][2]
*454 ram\[50\][1]
*455 ram\[50\][0]
*456 ram\[51\][7]
*457 ram\[51\][6]
*458 ram\[51\][5]
*459 ram\[51\][4]
*460 ram\[51\][3]
*461 ram\[51\][2]
*462 ram\[51\][1]
*463 ram\[51\][0]
*464 ram\[52\][7]
*465 ram\[52\][6]
*466 ram\[52\][5]
*467 ram\[52\][4]
*468 ram\[52\][3]
*469 ram\[52\][2]
*470 ram\[52\][1]
*471 ram\[52\][0]
*472 ram\[53\][7]
*473 ram\[53\][6]
*474 ram\[53\][5]
*475 ram\[53\][4]
*476 ram\[53\][3]
*477 ram\[53\][2]
*478 ram\[53\][1]
*479 ram\[53\][0]
*480 ram\[54\][7]
*481 ram\[54\][6]
*482 ram\[54\][5]
*483 ram\[54\][4]
*484 ram\[54\][3]
*485 ram\[54\][2]
*486 ram\[54\][1]
*487 ram\[54\][0]
*488 ram\[55\][7]
*489 ram\[55\][6]
*490 ram\[55\][5]
*491 ram\[55\][4]
*492 ram\[55\][3]
*493 ram\[55\][2]
*494 ram\[55\][1]
*495 ram\[55\][0]
*496 ram\[56\][7]
*497 ram\[56\][6]
*498 ram\[56\][5]
*499 ram\[56\][4]
*500 ram\[56\][3]
*501 ram\[56\][2]
*502 ram\[56\][1]
*503 ram\[56\][0]
*504 ram\[57\][7]
*505 ram\[57\][6]
*506 ram\[57\][5]
*507 ram\[57\][4]
*508 ram\[57\][3]
*509 ram\[57\][2]
*510 ram\[57\][1]
*511 ram\[57\][0]
*512 ram\[58\][7]
*513 ram\[58\][6]
*514 ram\[58\][5]
*515 ram\[58\][4]
*516 ram\[58\][3]
*517 ram\[58\][2]
*518 ram\[58\][1]
*519 ram\[58\][0]
*520 ram\[59\][7]
*521 ram\[59\][6]
*522 ram\[59\][5]
*523 ram\[59\][4]
*524 ram\[59\][3]
*525 ram\[59\][2]
*526 ram\[59\][1]
*527 ram\[59\][0]
*528 ram\[60\][7]
*529 ram\[60\][6]
*530 ram\[60\][5]
*531 ram\[60\][4]
*532 ram\[60\][3]
*533 ram\[60\][2]
*534 ram\[60\][1]
*535 ram\[60\][0]
*536 ram\[61\][7]
*537 ram\[61\][6]
*538 ram\[61\][5]
*539 ram\[61\][4]
*540 ram\[61\][3]
*541 ram\[61\][2]
*542 ram\[61\][1]
*543 ram\[61\][0]
*544 ram\[62\][7]
*545 ram\[62\][6]
*546 ram\[62\][5]
*547 ram\[62\][4]
*548 ram\[62\][3]
*549 ram\[62\][2]
*550 ram\[62\][1]
*551 ram\[62\][0]
*552 ram\[63\][7]
*553 ram\[63\][6]
*554 ram\[63\][5]
*555 ram\[63\][4]
*556 ram\[63\][3]
*557 ram\[63\][2]
*558 ram\[63\][1]
*559 ram\[63\][0]
*560 n_0
*561 n_1
*562 n_2
*563 n_3
*564 n_4
*565 n_5
*566 n_6
*567 n_7
*568 n_8
*569 n_9
*570 n_10
*571 n_91
*572 n_92
*573 n_93
*574 n_94
*575 n_95
*576 n_96
*577 n_97
*578 n_98
*579 n_99
*580 n_100
*581 n_101
*582 n_102
*583 n_103
*584 n_104
*585 n_105
*586 n_106
*587 n_107
*588 n_108
*589 n_109
*590 n_110
*591 n_111
*592 n_112
*593 n_113
*594 n_114
*595 n_115
*596 n_116
*597 n_117
*598 n_118
*599 n_119
*600 n_120
*601 n_121
*602 n_122
*603 n_123
*604 n_124
*605 n_125
*606 n_126
*607 n_127
*608 n_128
*609 n_129
*610 n_130
*611 n_131
*612 n_132
*613 n_133
*614 n_134
*615 n_135
*616 n_136
*617 n_137
*618 n_138
*619 n_139
*620 n_140
*621 n_141
*622 n_142
*623 n_143
*624 n_144
*625 n_145
*626 n_146
*627 n_147
*628 n_148
*629 n_149
*630 n_150
*631 n_151
*632 n_152
*633 n_153
*634 n_154
*635 n_155
*636 n_156
*637 n_157
*638 n_158
*639 n_159
*640 n_160
*641 n_161
*642 n_162
*643 n_163
*644 n_164
*645 n_165
*646 n_166
*647 n_167
*648 n_168
*649 n_169
*650 n_170
*651 n_171
*652 n_172
*653 n_173
*654 n_174
*655 n_175
*656 n_176
*657 n_177
*658 n_178
*659 n_179
*660 n_180
*661 n_181
*662 n_182
*663 n_183
*664 n_184
*665 n_185
*666 n_186
*667 n_187
*668 n_188
*669 n_189
*670 n_190
*671 n_191
*672 n_192
*673 n_193
*674 n_194
*675 n_195
*676 n_196
*677 n_197
*678 n_198
*679 n_199
*680 n_200
*681 n_201
*682 n_202
*683 n_203
*684 n_204
*685 n_205
*686 n_206
*687 n_207
*688 n_208
*689 n_209
*690 n_210
*691 n_211
*692 n_212
*693 n_213
*694 n_214
*695 n_215
*696 n_216
*697 n_217
*698 n_218
*699 n_219
*700 n_220
*701 n_221
*702 n_222
*703 n_223
*704 n_224
*705 n_225
*706 n_226
*707 n_227
*708 n_228
*709 n_229
*710 n_230
*711 n_231
*712 n_232
*713 n_233
*714 n_234
*715 n_235
*716 n_236
*717 n_237
*718 n_238
*719 n_239
*720 n_240
*721 n_241
*722 n_242
*723 n_243
*724 n_244
*725 n_245
*726 n_246
*727 n_247
*728 n_248
*729 n_249
*730 n_250
*731 n_251
*732 n_252
*733 n_253
*734 n_254
*735 n_255
*736 n_256
*737 n_257
*738 n_258
*739 n_259
*740 n_260
*741 n_261
*742 n_262
*743 n_263
*744 n_264
*745 n_265
*746 n_266
*747 n_267
*748 n_268
*749 n_269
*750 n_270
*751 n_271
*752 n_272
*753 n_273
*754 n_274
*755 n_275
*756 n_276
*757 n_277
*758 n_278
*759 n_279
*760 n_280
*761 n_281
*762 n_282
*763 n_283
*764 n_284
*765 n_285
*766 n_286
*767 n_287
*768 n_288
*769 n_289
*770 n_290
*771 n_291
*772 n_292
*773 n_293
*774 n_294
*775 n_295
*776 n_296
*777 n_297
*778 n_298
*779 n_299
*780 n_300
*781 n_301
*782 n_302
*783 n_303
*784 n_304
*785 n_305
*786 n_306
*787 n_307
*788 n_308
*789 n_309
*790 n_310
*791 n_311
*792 n_312
*793 n_313
*794 n_314
*795 n_315
*796 n_316
*797 n_317
*798 n_318
*799 n_319
*800 n_320
*801 n_321
*802 n_322
*803 n_323
*804 n_324
*805 n_325
*806 n_326
*807 n_327
*808 n_328
*809 n_329
*810 n_330
*811 n_331
*812 n_332
*813 n_333
*814 n_334
*815 n_335
*816 n_336
*817 n_337
*818 n_338
*819 n_339
*820 n_340
*821 n_341
*822 n_342
*823 n_343
*824 n_344
*825 n_345
*826 n_346
*827 n_347
*828 n_348
*829 n_349
*830 n_350
*831 n_351
*832 n_352
*833 n_353
*834 n_354
*835 n_355
*836 n_356
*837 n_357
*838 n_358
*839 n_359
*840 n_360
*841 n_361
*842 n_362
*843 n_363
*844 n_364
*845 n_365
*846 n_366
*847 n_367
*848 n_368
*849 n_369
*850 n_370
*851 n_371
*852 n_372
*853 n_373
*854 n_374
*855 n_375
*856 n_376
*857 n_377
*858 n_378
*859 n_379
*860 n_380
*861 n_381
*862 n_382
*863 n_383
*864 n_384
*865 n_385
*866 n_386
*867 n_387
*868 n_388
*869 n_389
*870 n_390
*871 n_391
*872 n_392
*873 n_393
*874 n_394
*875 n_395
*876 n_396
*877 n_397
*878 n_398
*879 n_399
*880 n_400
*881 n_401
*882 n_402
*883 n_403
*884 n_404
*885 n_405
*886 n_406
*887 n_407
*888 n_408
*889 n_409
*890 n_410
*891 n_411
*892 n_412
*893 n_413
*894 n_414
*895 n_415
*896 n_416
*897 n_417
*898 n_418
*899 n_419
*900 n_420
*901 n_421
*902 n_422
*903 n_423
*904 n_424
*905 n_425
*906 n_426
*907 n_427
*908 n_428
*909 n_429
*910 n_430
*911 n_431
*912 n_432
*913 n_433
*914 n_434
*915 n_435
*916 n_436
*917 n_437
*918 n_438
*919 n_439
*920 n_440
*921 n_441
*922 n_442
*923 n_443
*924 n_444
*925 n_445
*926 n_446
*927 n_447
*928 n_448
*929 n_449
*930 n_450
*931 n_451
*932 n_452
*933 n_453
*934 n_454
*935 n_455
*936 n_456
*937 n_457
*938 n_458
*939 n_459
*940 n_460
*941 n_461
*942 n_462
*943 n_463
*944 n_464
*945 n_465
*946 n_466
*947 n_467
*948 n_468
*949 n_469
*950 n_470
*951 n_471
*952 n_472
*953 n_473
*954 n_474
*955 n_475
*956 n_476
*957 n_477
*958 n_478
*959 n_479
*960 n_480
*961 n_481
*962 n_482
*963 n_483
*964 n_484
*965 n_485
*966 n_486
*967 n_487
*968 n_488
*969 n_489
*970 n_490
*971 n_491
*972 n_492
*973 n_493
*974 n_494
*975 n_495
*976 n_496
*977 n_497
*978 n_498
*979 n_499
*980 n_500
*981 n_501
*982 n_502
*983 n_503
*984 n_504
*985 n_505
*986 n_506
*987 n_507
*988 n_508
*989 n_509
*990 n_510
*991 n_511
*992 n_512
*993 n_513
*994 n_514
*995 n_515
*996 n_516
*997 n_517
*998 n_518
*999 n_519
*1000 n_520
*1001 n_521
*1002 n_522
*1003 n_523
*1004 n_524
*1005 n_525
*1006 n_526
*1007 n_527
*1008 n_528
*1009 n_529
*1010 n_530
*1011 n_531
*1012 n_532
*1013 n_533
*1014 n_534
*1015 n_535
*1016 n_536
*1017 n_537
*1018 n_538
*1019 n_539
*1020 n_540
*1021 n_541
*1022 n_542
*1023 n_543
*1024 n_544
*1025 n_545
*1026 n_546
*1027 n_547
*1028 n_548
*1029 n_549
*1030 n_550
*1031 n_551
*1032 n_552
*1033 n_553
*1034 n_554
*1035 n_555
*1036 n_556
*1037 n_557
*1038 n_558
*1039 n_559
*1040 n_560
*1041 n_561
*1042 n_562
*1043 n_563
*1044 n_564
*1045 n_565
*1046 n_566
*1047 n_567
*1048 n_568
*1049 n_569
*1050 n_570
*1051 n_571
*1052 n_572
*1053 n_573
*1054 n_574
*1055 n_575
*1056 n_576
*1057 n_577
*1058 n_578
*1059 n_579
*1060 n_580
*1061 n_581
*1062 n_582
*1063 n_583
*1064 n_584
*1065 n_585
*1066 n_586
*1067 n_587
*1068 n_588
*1069 n_589
*1070 n_590
*1071 n_591
*1072 n_592
*1073 n_593
*1074 n_594
*1075 n_595
*1076 n_596
*1077 n_597
*1078 n_598
*1079 n_599
*1080 n_600
*1081 n_601
*1082 n_602
*1083 n_603
*1084 n_604
*1085 n_605
*1086 n_606
*1087 n_607
*1088 n_608
*1089 n_609
*1090 n_610
*1091 n_611
*1092 n_612
*1093 n_613
*1094 n_614
*1095 n_615
*1096 n_616
*1097 n_617
*1098 n_618
*1099 n_619
*1100 n_620
*1101 n_621
*1102 n_622
*1103 n_623
*1104 n_624
*1105 n_625
*1106 n_626
*1107 n_627
*1108 n_628
*1109 n_629
*1110 n_630
*1111 n_631
*1112 n_632
*1113 n_633
*1114 n_634
*1115 n_635
*1116 n_636
*1117 n_637
*1118 n_638
*1119 n_639
*1120 n_640
*1121 n_641
*1122 n_642
*1123 n_643
*1124 n_644
*1125 n_645
*1126 n_646
*1127 n_647
*1128 n_648
*1129 n_649
*1130 n_650
*1131 n_651
*1132 n_652
*1133 n_653
*1134 n_654
*1135 n_655
*1136 n_656
*1137 n_657
*1138 n_658
*1139 n_659
*1140 n_660
*1141 n_661
*1142 n_662
*1143 n_663
*1144 n_664
*1145 n_665
*1146 n_666
*1147 n_667
*1148 n_668
*1149 n_669
*1150 n_670
*1151 n_671
*1152 n_672
*1153 n_673
*1154 n_674
*1155 n_675
*1156 n_676
*1157 n_677
*1158 n_678
*1159 n_679
*1160 n_680
*1161 n_681
*1162 n_682
*1163 n_683
*1164 n_684
*1165 n_685
*1166 n_686
*1167 n_687
*1168 n_688
*1169 n_689
*1170 n_690
*1171 n_691
*1172 n_692
*1173 n_693
*1174 n_694
*1175 n_695
*1176 n_696
*1177 n_697
*1178 n_698
*1179 n_699
*1180 n_700
*1181 n_701
*1182 n_702
*1183 n_703
*1184 n_704
*1185 n_705
*1186 n_706
*1187 n_707
*1188 n_708
*1189 n_709
*1190 n_710
*1191 n_711
*1192 n_712
*1193 n_713
*1194 n_714
*1195 n_715
*1196 n_716
*1197 n_717
*1198 n_718
*1199 n_719
*1200 n_720
*1201 n_721
*1202 n_722
*1203 n_723
*1204 n_724
*1205 n_725
*1206 n_726
*1207 n_727
*1208 n_728
*1209 n_729
*1210 n_730
*1211 n_731
*1212 n_732
*1213 n_733
*1214 n_734
*1215 n_735
*1216 n_736
*1217 n_737
*1218 n_738
*1219 n_739
*1220 n_740
*1221 n_741
*1222 n_742
*1223 n_743
*1224 n_744
*1225 n_745
*1226 n_746
*1227 n_747
*1228 n_748
*1229 n_749
*1230 n_750
*1231 n_751
*1232 n_752
*1233 n_753
*1234 n_754
*1235 n_755
*1236 n_756
*1237 n_757
*1238 n_758
*1239 n_759
*1240 n_760
*1241 n_761
*1242 n_762
*1243 n_763
*1244 n_764
*1245 n_765
*1246 n_766
*1247 n_767
*1248 n_768
*1249 n_769
*1250 n_770
*1251 n_771
*1252 n_772
*1253 n_773
*1254 n_774
*1255 n_775
*1256 n_776
*1257 n_777
*1258 n_778
*1259 n_779
*1260 n_780
*1261 n_781
*1262 n_782
*1263 n_783
*1264 n_784
*1265 n_785
*1266 n_786
*1267 n_787
*1268 n_788
*1269 n_789
*1270 n_790
*1271 n_791
*1272 n_792
*1273 n_793
*1274 n_794
*1275 n_795
*1276 n_796
*1277 n_797
*1278 n_798
*1279 n_799
*1280 n_800
*1281 n_801
*1282 n_802
*1283 n_803
*1284 n_804
*1285 n_805
*1286 n_806
*1287 n_807
*1288 n_808
*1289 n_809
*1290 n_810
*1291 n_811
*1292 n_812
*1293 n_813
*1294 n_814
*1295 n_815
*1296 n_816
*1297 n_817
*1298 n_818
*1299 n_819
*1300 n_820
*1301 n_821
*1302 n_822
*1303 n_823
*1304 n_824
*1305 n_825
*1306 n_826
*1307 n_827
*1308 n_828
*1309 n_829
*1310 n_830
*1311 n_831
*1312 n_832
*1313 n_833
*1314 n_834
*1315 n_835
*1316 n_836
*1317 n_837
*1318 n_838
*1319 n_839
*1320 n_840
*1321 n_841
*1322 n_842
*1323 n_843
*1324 n_844
*1325 n_845
*1326 n_846
*1327 n_847
*1328 n_848
*1329 n_849
*1330 n_850
*1331 n_851
*1332 n_852
*1333 n_853
*1334 n_854
*1335 n_855
*1336 n_856
*1337 n_857
*1338 n_858
*1339 n_859
*1340 n_860
*1341 n_861
*1342 n_862
*1343 n_863
*1344 n_864
*1345 n_865
*1346 n_866
*1347 n_867
*1348 n_868
*1349 n_869
*1350 n_870
*1351 n_871
*1352 n_872
*1353 n_873
*1354 n_874
*1355 n_875
*1356 n_876
*1357 n_877
*1358 n_878
*1359 n_879
*1360 n_880
*1361 n_881
*1362 n_882
*1363 n_883
*1364 n_884
*1365 n_885
*1366 n_886
*1367 n_887
*1368 n_888
*1369 n_889
*1370 n_890
*1371 n_891
*1372 n_892
*1373 n_893
*1374 n_894
*1375 n_895
*1376 n_896
*1377 n_897
*1378 n_898
*1379 n_899
*1380 n_900
*1381 n_901
*1382 n_902
*1383 n_903
*1384 n_904
*1385 n_905
*1386 n_906
*1387 n_907
*1388 n_908
*1389 n_909
*1390 n_910
*1391 n_911
*1392 n_912
*1393 n_913
*1394 n_914
*1395 n_915
*1396 n_916
*1397 n_917
*1398 n_918
*1399 n_919
*1400 n_920
*1401 n_921
*1402 n_922
*1403 n_923
*1404 n_924
*1405 n_925
*1406 n_926
*1407 n_927
*1408 n_928
*1409 n_929
*1410 n_930
*1411 n_931
*1412 n_932
*1413 n_933
*1414 n_934
*1415 n_935
*1416 n_936
*1417 n_937
*1418 n_938
*1419 n_939
*1420 n_940
*1421 n_941
*1422 n_942
*1423 n_943
*1424 n_944
*1425 n_945
*1426 n_946
*1427 n_947
*1428 n_948
*1429 n_949
*1430 n_950
*1431 n_951
*1432 n_952
*1433 n_953
*1434 n_954
*1435 n_955
*1436 n_956
*1437 n_957
*1438 n_958
*1439 n_959
*1440 n_960
*1441 n_961
*1442 n_962
*1443 n_963
*1444 n_964
*1445 n_965
*1446 n_966
*1447 n_967
*1448 n_968
*1449 n_969
*1450 n_970
*1451 n_971
*1452 n_972
*1453 n_973
*1454 n_974
*1455 n_975
*1456 n_976
*1457 n_977
*1458 n_978
*1459 n_979
*1460 n_980
*1461 n_981
*1462 n_982
*1463 n_983
*1464 n_984
*1465 n_985
*1466 n_986
*1467 n_987
*1468 n_988
*1469 n_989
*1470 n_990
*1471 n_991
*1472 n_992
*1473 n_993
*1474 n_994
*1475 n_995
*1476 n_996
*1477 n_997
*1478 n_998
*1479 n_999
*1480 n_1000
*1481 n_1001
*1482 n_1002
*1483 n_1003
*1484 n_1004
*1485 n_1005
*1486 n_1006
*1487 n_1007
*1488 n_1008
*1489 n_1009
*1490 n_1010
*1491 n_1011
*1492 n_1012
*1493 n_1013
*1494 n_1014
*1495 n_1015
*1496 n_1016
*1497 n_1017
*1498 n_1018
*1499 n_1019
*1500 n_1020
*1501 n_1021
*1502 n_1022
*1503 n_1023
*1504 n_1024
*1505 n_1025
*1506 n_1026
*1507 n_1027
*1508 n_1028
*1509 n_1029
*1510 n_1030
*1511 n_1031
*1512 n_1032
*1513 n_1033
*1514 n_1034
*1515 n_1035
*1516 n_1036
*1517 n_1037
*1518 n_1038
*1519 n_1039
*1520 n_1040
*1521 n_1041
*1522 n_1042
*1523 n_1043
*1524 n_1044
*1525 n_1045
*1526 n_1046
*1527 n_1047
*1528 n_1048
*1529 n_1049
*1530 n_1050
*1531 n_1051
*1532 n_1052
*1533 n_1053
*1534 n_1054
*1535 n_1055
*1536 n_1056
*1537 n_1057
*1538 n_1058
*1539 n_1059
*1540 n_1060
*1541 n_1061
*1542 n_1062
*1543 n_1063
*1544 n_1064
*1545 n_1065
*1546 n_1066
*1547 n_1067
*1548 n_1068
*1549 n_1069
*1550 n_1070
*1551 n_1071
*1552 n_1072
*1553 n_1073
*1554 n_1074
*1555 n_1075
*1556 n_1076
*1557 n_1077
*1558 n_1078
*1559 n_1079
*1560 n_1080
*1561 n_1081
*1562 n_1082
*1563 n_1083
*1564 n_1084
*1565 n_1085
*1566 n_1086
*1567 n_1087
*1568 n_1088
*1569 n_1089
*1570 n_1090
*1571 n_1091
*1572 n_1092
*1573 n_1093
*1574 n_1094
*1575 n_1095
*1576 n_1096
*1577 n_1097
*1578 n_1098
*1579 n_1099
*1580 n_1100
*1581 n_1101
*1582 n_1102
*1583 n_1103
*1584 n_1104
*1585 n_1105
*1586 n_1106
*1587 n_1107
*1588 n_1108
*1589 n_1109
*1590 n_1110
*1591 n_1111
*1592 n_1112
*1593 n_1113
*1594 n_1114
*1595 n_1115
*1596 n_1116
*1597 n_1117
*1598 n_1118
*1599 n_1119
*1600 n_1120
*1601 n_1121
*1602 n_1122
*1603 n_1123
*1604 n_1124
*1605 n_1125
*1606 n_1126
*1607 n_1127
*1608 n_1128
*1609 n_1129
*1610 n_1130
*1611 n_1131
*1612 n_1132
*1613 n_1133
*1614 n_1134
*1615 q1_reg\[0\]
*1616 q1_reg\[1\]
*1617 q1_reg\[2\]
*1618 q1_reg\[3\]
*1619 q1_reg\[4\]
*1620 q1_reg\[5\]
*1621 q1_reg\[6\]
*1622 q1_reg\[7\]
*1623 q2_reg\[0\]
*1624 q2_reg\[1\]
*1625 q2_reg\[2\]
*1626 q2_reg\[3\]
*1627 q2_reg\[4\]
*1628 q2_reg\[5\]
*1629 q2_reg\[6\]
*1630 q2_reg\[7\]
*1631 ram_reg\[0\]\[0\]
*1632 ram_reg\[0\]\[0\]781
*1633 ram_reg\[0\]\[1\]
*1634 ram_reg\[0\]\[1\]782
*1635 ram_reg\[0\]\[2\]
*1636 ram_reg\[0\]\[2\]783
*1637 ram_reg\[0\]\[3\]
*1638 ram_reg\[0\]\[3\]784
*1639 ram_reg\[0\]\[4\]
*1640 ram_reg\[0\]\[4\]785
*1641 ram_reg\[0\]\[5\]
*1642 ram_reg\[0\]\[5\]786
*1643 ram_reg\[0\]\[6\]
*1644 ram_reg\[0\]\[6\]787
*1645 ram_reg\[0\]\[7\]
*1646 ram_reg\[0\]\[7\]788
*1647 ram_reg\[1\]\[0\]
*1648 ram_reg\[1\]\[0\]797
*1649 ram_reg\[1\]\[1\]
*1650 ram_reg\[1\]\[1\]798
*1651 ram_reg\[1\]\[2\]
*1652 ram_reg\[1\]\[2\]799
*1653 ram_reg\[1\]\[3\]
*1654 ram_reg\[1\]\[3\]800
*1655 ram_reg\[1\]\[4\]
*1656 ram_reg\[1\]\[4\]801
*1657 ram_reg\[1\]\[5\]
*1658 ram_reg\[1\]\[5\]802
*1659 ram_reg\[1\]\[6\]
*1660 ram_reg\[1\]\[6\]803
*1661 ram_reg\[1\]\[7\]
*1662 ram_reg\[1\]\[7\]804
*1663 ram_reg\[2\]\[0\]
*1664 ram_reg\[2\]\[0\]813
*1665 ram_reg\[2\]\[1\]
*1666 ram_reg\[2\]\[1\]814
*1667 ram_reg\[2\]\[2\]
*1668 ram_reg\[2\]\[2\]815
*1669 ram_reg\[2\]\[3\]
*1670 ram_reg\[2\]\[3\]816
*1671 ram_reg\[2\]\[4\]
*1672 ram_reg\[2\]\[4\]817
*1673 ram_reg\[2\]\[5\]
*1674 ram_reg\[2\]\[5\]818
*1675 ram_reg\[2\]\[6\]
*1676 ram_reg\[2\]\[6\]819
*1677 ram_reg\[2\]\[7\]
*1678 ram_reg\[2\]\[7\]820
*1679 ram_reg\[3\]\[0\]
*1680 ram_reg\[3\]\[0\]829
*1681 ram_reg\[3\]\[1\]
*1682 ram_reg\[3\]\[1\]830
*1683 ram_reg\[3\]\[2\]
*1684 ram_reg\[3\]\[2\]831
*1685 ram_reg\[3\]\[3\]
*1686 ram_reg\[3\]\[3\]832
*1687 ram_reg\[3\]\[4\]
*1688 ram_reg\[3\]\[4\]833
*1689 ram_reg\[3\]\[5\]
*1690 ram_reg\[3\]\[5\]834
*1691 ram_reg\[3\]\[6\]
*1692 ram_reg\[3\]\[6\]835
*1693 ram_reg\[3\]\[7\]
*1694 ram_reg\[3\]\[7\]836
*1695 ram_reg\[4\]\[0\]
*1696 ram_reg\[4\]\[0\]845
*1697 ram_reg\[4\]\[1\]
*1698 ram_reg\[4\]\[1\]846
*1699 ram_reg\[4\]\[2\]
*1700 ram_reg\[4\]\[2\]847
*1701 ram_reg\[4\]\[3\]
*1702 ram_reg\[4\]\[3\]848
*1703 ram_reg\[4\]\[4\]
*1704 ram_reg\[4\]\[4\]849
*1705 ram_reg\[4\]\[5\]
*1706 ram_reg\[4\]\[5\]850
*1707 ram_reg\[4\]\[6\]
*1708 ram_reg\[4\]\[6\]851
*1709 ram_reg\[4\]\[7\]
*1710 ram_reg\[4\]\[7\]852
*1711 ram_reg\[5\]\[0\]
*1712 ram_reg\[5\]\[0\]861
*1713 ram_reg\[5\]\[1\]
*1714 ram_reg\[5\]\[1\]862
*1715 ram_reg\[5\]\[2\]
*1716 ram_reg\[5\]\[2\]863
*1717 ram_reg\[5\]\[3\]
*1718 ram_reg\[5\]\[3\]864
*1719 ram_reg\[5\]\[4\]
*1720 ram_reg\[5\]\[4\]865
*1721 ram_reg\[5\]\[5\]
*1722 ram_reg\[5\]\[5\]866
*1723 ram_reg\[5\]\[6\]
*1724 ram_reg\[5\]\[6\]867
*1725 ram_reg\[5\]\[7\]
*1726 ram_reg\[5\]\[7\]868
*1727 ram_reg\[6\]\[0\]
*1728 ram_reg\[6\]\[0\]877
*1729 ram_reg\[6\]\[1\]
*1730 ram_reg\[6\]\[1\]878
*1731 ram_reg\[6\]\[2\]
*1732 ram_reg\[6\]\[2\]879
*1733 ram_reg\[6\]\[3\]
*1734 ram_reg\[6\]\[3\]880
*1735 ram_reg\[6\]\[4\]
*1736 ram_reg\[6\]\[4\]881
*1737 ram_reg\[6\]\[5\]
*1738 ram_reg\[6\]\[5\]882
*1739 ram_reg\[6\]\[6\]
*1740 ram_reg\[6\]\[6\]883
*1741 ram_reg\[6\]\[7\]
*1742 ram_reg\[6\]\[7\]884
*1743 ram_reg\[7\]\[0\]
*1744 ram_reg\[7\]\[0\]893
*1745 ram_reg\[7\]\[1\]
*1746 ram_reg\[7\]\[1\]894
*1747 ram_reg\[7\]\[2\]
*1748 ram_reg\[7\]\[2\]895
*1749 ram_reg\[7\]\[3\]
*1750 ram_reg\[7\]\[3\]896
*1751 ram_reg\[7\]\[4\]
*1752 ram_reg\[7\]\[4\]897
*1753 ram_reg\[7\]\[5\]
*1754 ram_reg\[7\]\[5\]898
*1755 ram_reg\[7\]\[6\]
*1756 ram_reg\[7\]\[6\]899
*1757 ram_reg\[7\]\[7\]
*1758 ram_reg\[7\]\[7\]900
*1759 ram_reg\[8\]\[0\]
*1760 ram_reg\[8\]\[0\]909
*1761 ram_reg\[8\]\[1\]
*1762 ram_reg\[8\]\[1\]910
*1763 ram_reg\[8\]\[2\]
*1764 ram_reg\[8\]\[2\]911
*1765 ram_reg\[8\]\[3\]
*1766 ram_reg\[8\]\[3\]912
*1767 ram_reg\[8\]\[4\]
*1768 ram_reg\[8\]\[4\]913
*1769 ram_reg\[8\]\[5\]
*1770 ram_reg\[8\]\[5\]914
*1771 ram_reg\[8\]\[6\]
*1772 ram_reg\[8\]\[6\]915
*1773 ram_reg\[8\]\[7\]
*1774 ram_reg\[8\]\[7\]916
*1775 ram_reg\[9\]\[0\]
*1776 ram_reg\[9\]\[0\]925
*1777 ram_reg\[9\]\[1\]
*1778 ram_reg\[9\]\[1\]926
*1779 ram_reg\[9\]\[2\]
*1780 ram_reg\[9\]\[2\]927
*1781 ram_reg\[9\]\[3\]
*1782 ram_reg\[9\]\[3\]928
*1783 ram_reg\[9\]\[4\]
*1784 ram_reg\[9\]\[4\]929
*1785 ram_reg\[9\]\[5\]
*1786 ram_reg\[9\]\[5\]930
*1787 ram_reg\[9\]\[6\]
*1788 ram_reg\[9\]\[6\]931
*1789 ram_reg\[9\]\[7\]
*1790 ram_reg\[9\]\[7\]932
*1791 ram_reg\[10\]\[0\]
*1792 ram_reg\[10\]\[0\]941
*1793 ram_reg\[10\]\[1\]
*1794 ram_reg\[10\]\[1\]942
*1795 ram_reg\[10\]\[2\]
*1796 ram_reg\[10\]\[2\]943
*1797 ram_reg\[10\]\[3\]
*1798 ram_reg\[10\]\[3\]944
*1799 ram_reg\[10\]\[4\]
*1800 ram_reg\[10\]\[4\]945
*1801 ram_reg\[10\]\[5\]
*1802 ram_reg\[10\]\[5\]946
*1803 ram_reg\[10\]\[6\]
*1804 ram_reg\[10\]\[6\]947
*1805 ram_reg\[10\]\[7\]
*1806 ram_reg\[10\]\[7\]948
*1807 ram_reg\[11\]\[0\]
*1808 ram_reg\[11\]\[0\]957
*1809 ram_reg\[11\]\[1\]
*1810 ram_reg\[11\]\[1\]958
*1811 ram_reg\[11\]\[2\]
*1812 ram_reg\[11\]\[2\]959
*1813 ram_reg\[11\]\[3\]
*1814 ram_reg\[11\]\[3\]960
*1815 ram_reg\[11\]\[4\]
*1816 ram_reg\[11\]\[4\]961
*1817 ram_reg\[11\]\[5\]
*1818 ram_reg\[11\]\[5\]962
*1819 ram_reg\[11\]\[6\]
*1820 ram_reg\[11\]\[6\]963
*1821 ram_reg\[11\]\[7\]
*1822 ram_reg\[11\]\[7\]964
*1823 ram_reg\[12\]\[0\]
*1824 ram_reg\[12\]\[0\]973
*1825 ram_reg\[12\]\[1\]
*1826 ram_reg\[12\]\[1\]974
*1827 ram_reg\[12\]\[2\]
*1828 ram_reg\[12\]\[2\]975
*1829 ram_reg\[12\]\[3\]
*1830 ram_reg\[12\]\[3\]976
*1831 ram_reg\[12\]\[4\]
*1832 ram_reg\[12\]\[4\]977
*1833 ram_reg\[12\]\[5\]
*1834 ram_reg\[12\]\[5\]978
*1835 ram_reg\[12\]\[6\]
*1836 ram_reg\[12\]\[6\]979
*1837 ram_reg\[12\]\[7\]
*1838 ram_reg\[12\]\[7\]980
*1839 ram_reg\[13\]\[0\]
*1840 ram_reg\[13\]\[0\]989
*1841 ram_reg\[13\]\[1\]
*1842 ram_reg\[13\]\[1\]990
*1843 ram_reg\[13\]\[2\]
*1844 ram_reg\[13\]\[2\]991
*1845 ram_reg\[13\]\[3\]
*1846 ram_reg\[13\]\[3\]992
*1847 ram_reg\[13\]\[4\]
*1848 ram_reg\[13\]\[4\]993
*1849 ram_reg\[13\]\[5\]
*1850 ram_reg\[13\]\[5\]994
*1851 ram_reg\[13\]\[6\]
*1852 ram_reg\[13\]\[6\]995
*1853 ram_reg\[13\]\[7\]
*1854 ram_reg\[13\]\[7\]996
*1855 ram_reg\[14\]\[0\]
*1856 ram_reg\[14\]\[0\]1005
*1857 ram_reg\[14\]\[1\]
*1858 ram_reg\[14\]\[1\]1006
*1859 ram_reg\[14\]\[2\]
*1860 ram_reg\[14\]\[2\]1007
*1861 ram_reg\[14\]\[3\]
*1862 ram_reg\[14\]\[3\]1008
*1863 ram_reg\[14\]\[4\]
*1864 ram_reg\[14\]\[4\]1009
*1865 ram_reg\[14\]\[5\]
*1866 ram_reg\[14\]\[5\]1010
*1867 ram_reg\[14\]\[6\]
*1868 ram_reg\[14\]\[6\]1011
*1869 ram_reg\[14\]\[7\]
*1870 ram_reg\[14\]\[7\]1012
*1871 ram_reg\[15\]\[0\]
*1872 ram_reg\[15\]\[0\]1021
*1873 ram_reg\[15\]\[1\]
*1874 ram_reg\[15\]\[1\]1022
*1875 ram_reg\[15\]\[2\]
*1876 ram_reg\[15\]\[2\]1023
*1877 ram_reg\[15\]\[3\]
*1878 ram_reg\[15\]\[3\]1024
*1879 ram_reg\[15\]\[4\]
*1880 ram_reg\[15\]\[4\]1025
*1881 ram_reg\[15\]\[5\]
*1882 ram_reg\[15\]\[5\]1026
*1883 ram_reg\[15\]\[6\]
*1884 ram_reg\[15\]\[6\]1027
*1885 ram_reg\[15\]\[7\]
*1886 ram_reg\[15\]\[7\]1028
*1887 ram_reg\[16\]\[0\]
*1888 ram_reg\[16\]\[0\]1037
*1889 ram_reg\[16\]\[1\]
*1890 ram_reg\[16\]\[1\]1038
*1891 ram_reg\[16\]\[2\]
*1892 ram_reg\[16\]\[2\]1039
*1893 ram_reg\[16\]\[3\]
*1894 ram_reg\[16\]\[3\]1040
*1895 ram_reg\[16\]\[4\]
*1896 ram_reg\[16\]\[4\]1041
*1897 ram_reg\[16\]\[5\]
*1898 ram_reg\[16\]\[5\]1042
*1899 ram_reg\[16\]\[6\]
*1900 ram_reg\[16\]\[6\]1043
*1901 ram_reg\[16\]\[7\]
*1902 ram_reg\[16\]\[7\]1044
*1903 ram_reg\[17\]\[0\]
*1904 ram_reg\[17\]\[0\]1053
*1905 ram_reg\[17\]\[1\]
*1906 ram_reg\[17\]\[1\]1054
*1907 ram_reg\[17\]\[2\]
*1908 ram_reg\[17\]\[2\]1055
*1909 ram_reg\[17\]\[3\]
*1910 ram_reg\[17\]\[3\]1056
*1911 ram_reg\[17\]\[4\]
*1912 ram_reg\[17\]\[4\]1057
*1913 ram_reg\[17\]\[5\]
*1914 ram_reg\[17\]\[5\]1058
*1915 ram_reg\[17\]\[6\]